
  Avogadro

 36 41  0  0  0  0  0  0  0  0999 V2000
   60.7850   41.5100   40.0500 C   0  0  0  0  0  0  0  0  0  0  0  0
   60.8920   40.6670   42.0580 C   0  0  0  0  0  0  0  0  0  0  0  0
   62.1360   40.8940   41.6490 C   0  0  0  0  0  0  0  0  0  0  0  0
   63.2500   40.6490   42.3440 C   0  0  0  0  0  0  0  0  0  0  0  0
   63.1960   40.1190   43.6390 C   0  0  0  0  0  0  0  0  0  0  0  0
   64.3740   39.8610   44.3570 C   0  0  0  0  0  0  0  0  0  0  0  0
   65.5990   40.1560   43.7470 C   0  0  0  0  0  0  0  0  0  0  0  0
   65.6590   40.6840   42.4600 C   0  0  0  0  0  0  0  0  0  0  0  0
   64.4860   40.9290   41.7590 C   0  0  0  0  0  0  0  0  0  0  0  0
   63.4120   38.7750   46.2750 C   0  0  0  0  0  0  0  0  0  0  0  0
   64.9070   38.3490   48.0740 C   0  0  0  0  0  0  0  0  0  0  0  0
   65.0270   37.8160   49.3500 C   0  0  0  0  0  0  0  0  0  0  0  0
   63.4550   35.9550   49.7350 C   0  0  0  0  0  0  0  0  0  0  0  0
   62.6910   36.1410   48.3960 C   0  0  0  0  0  0  0  0  0  0  0  0
   62.5430   37.6750   48.2760 C   0  0  0  0  0  0  0  0  0  0  0  0
   62.6930   38.0660   49.7360 C   0  0  0  0  0  0  0  0  0  0  0  0
   67.1780   38.9210   48.1140 C   0  0  0  0  0  0  0  0  0  0  0  0
   67.3240   38.3810   49.3920 C   0  0  0  0  0  0  0  0  0  0  0  0
   66.2340   37.8120   50.0330 C   0  0  0  0  0  0  0  0  0  0  0  0
   60.0680   41.0460   41.0750 N   0  0  0  0  0  0  0  0  0  0  0  0
   64.4430   39.3520   45.6070 N   0  0  0  0  0  0  0  0  0  0  0  0
   63.6720   38.2860   47.5030 N   0  0  0  0  0  0  0  0  0  0  0  0
   63.9000   37.3100   49.8030 N   0  0  0  0  0  0  0  0  0  0  0  0
   65.9860   38.8890   47.4790 N   0  0  0  0  0  0  0  0  0  0  0  0
   62.1180   41.4190   40.4020 O   0  0  0  0  0  0  0  0  0  0  0  0
   62.2710   38.6760   45.8240 O   0  0  0  0  0  0  0  0  0  0  0  0
   68.3060   39.4710   47.5080 C   0  0  0  0  0  0  0  0  0  0  0  0
   69.2600   40.1100   48.2930 C   0  0  0  0  0  0  0  0  0  0  0  0
   70.3930   40.6580   47.6980 C   0  0  0  0  0  0  0  0  0  0  0  0
   70.5780   40.5670   46.3210 C   0  0  0  0  0  0  0  0  0  0  0  0
   69.6290   39.9280   45.5310 C   0  0  0  0  0  0  0  0  0  0  0  0
   68.4950   39.3830   46.1300 C   0  0  0  0  0  0  0  0  0  0  0  0
   69.8260   39.8430   44.1490 C   0  0  0  0  0  0  0  0  0  0  0  0
   70.6010   38.8130   43.8770 F   0  0  0  0  0  0  0  0  0  0  0  0
   68.7030   39.6840   43.5200 F   0  0  0  0  0  0  0  0  0  0  0  0
   70.3910   40.9480   43.7210 F   0  0  0  0  0  0  0  0  0  0  0  0
  1 20  2  0  0  0  0
  1 25  1  0  0  0  0
  2  3  2  0  0  0  0
  2 20  1  0  0  0  0
  3  4  1  0  0  0  0
  3 25  1  0  0  0  0
  4  5  2  0  0  0  0
  4  9  1  0  0  0  0
  5  6  1  0  0  0  0
  6  7  2  0  0  0  0
  6 21  1  0  0  0  0
  7  8  1  0  0  0  0
  8  9  2  0  0  0  0
 10 21  1  0  0  0  0
 10 22  1  0  0  0  0
 10 26  2  0  0  0  0
 11 12  2  0  0  0  0
 11 22  1  0  0  0  0
 11 24  1  0  0  0  0
 12 19  1  0  0  0  0
 12 23  1  0  0  0  0
 13 14  1  0  0  0  0
 13 23  1  0  0  0  0
 14 15  1  0  0  0  0
 15 16  1  0  0  0  0
 15 22  1  0  0  0  0
 16 23  1  0  0  0  0
 17 18  1  0  0  0  0
 17 24  2  0  0  0  0
 17 27  1  0  0  0  0
 18 19  2  0  0  0  0
 27 28  2  0  0  0  0
 27 32  1  0  0  0  0
 28 29  1  0  0  0  0
 29 30  2  0  0  0  0
 30 31  1  0  0  0  0
 31 32  2  0  0  0  0
 31 33  1  0  0  0  0
 33 34  1  0  0  0  0
 33 35  1  0  0  0  0
 33 36  1  0  0  0  0
M  END
